Version 4.1
SHEET 1 1424 680
WIRE 1136 -112 1136 -144
WIRE 1296 -112 1296 -144
WIRE 1296 -112 1136 -112
WIRE 1136 -96 1136 -112
WIRE 1296 -96 1296 -112
WIRE 112 -48 64 -48
WIRE 240 -48 192 -48
WIRE 704 80 656 80
WIRE 832 80 768 80
WIRE -272 128 -272 64
WIRE -144 128 -272 128
WIRE 64 128 64 -48
WIRE 64 128 -64 128
WIRE 112 128 64 128
WIRE 240 144 240 -48
WIRE 240 144 192 144
WIRE 384 144 320 144
WIRE 496 144 384 144
WIRE 112 160 48 160
WIRE -272 176 -272 128
WIRE 656 176 656 80
WIRE 704 176 656 176
WIRE 832 176 832 80
WIRE 832 176 784 176
WIRE 1088 176 1056 176
WIRE 1200 176 1168 176
WIRE -144 304 -272 304
WIRE -32 304 -64 304
WIRE 48 304 48 160
WIRE 48 304 -32 304
WIRE 544 336 544 160
WIRE 656 336 656 176
WIRE 656 336 544 336
WIRE 704 336 656 336
WIRE -272 352 -272 304
WIRE -32 352 -32 304
WIRE 832 352 832 176
WIRE 832 352 784 352
WIRE 896 352 832 352
WIRE 1056 352 1056 176
WIRE 1056 352 976 352
WIRE 1088 352 1056 352
WIRE 704 368 656 368
WIRE 1200 368 1200 176
WIRE 1200 368 1168 368
WIRE 1296 368 1200 368
WIRE 1088 384 1056 384
WIRE 656 416 656 368
WIRE -32 432 -32 416
WIRE 1056 432 1056 384
FLAG -272 256 0
FLAG -272 432 0
FLAG -32 432 0
FLAG 544 64 +1V
FLAG 128 96 +ub
FLAG 720 304 +ub
FLAG 1104 320 +ub
FLAG 128 192 -ub
FLAG 720 400 -ub
FLAG 1104 416 -ub
FLAG 656 416 0
FLAG 1056 432 0
FLAG 1296 368 mess_out
FLAG 384 144 dac_b_out
FLAG -272 -16 +ub
FLAG 1136 -96 0
FLAG 1136 -224 +1V
FLAG 1296 -224 +ub
FLAG 1296 -16 -ub
SYMBOL OpAmps\\LT6001 128 144 R0
SYMATTR InstName U1
SYMBOL res 208 -64 R90
WINDOW 0 0 56 VBottom 2
WINDOW 3 32 56 VTop 2
SYMATTR InstName R1
SYMATTR Value 20k
SYMBOL res -48 112 R90
WINDOW 0 0 56 VBottom 2
WINDOW 3 32 56 VTop 2
SYMATTR InstName R2
SYMATTR Value 10k
SYMBOL res -256 80 R180
WINDOW 0 36 76 Left 2
WINDOW 3 36 40 Left 2
SYMATTR InstName R3
SYMATTR Value 1k
SYMBOL res -256 272 R180
WINDOW 0 36 76 Left 2
WINDOW 3 36 40 Left 2
SYMATTR InstName R4
SYMATTR Value 454
SYMBOL voltage -272 336 R0
WINDOW 123 0 0 Left 0
WINDOW 39 0 0 Left 0
SYMATTR InstName V1
SYMATTR Value 1.65
SYMBOL res -48 288 R90
WINDOW 0 0 56 VBottom 2
WINDOW 3 32 56 VTop 2
SYMATTR InstName R5
SYMATTR Value 10k
SYMBOL cap -48 352 R0
SYMATTR InstName C1
SYMATTR Value 10uF
SYMBOL res 336 128 R90
WINDOW 0 0 56 VBottom 2
WINDOW 3 32 56 VTop 2
SYMATTR InstName R6
SYMATTR Value 100
SYMBOL nmos 496 64 R0
SYMATTR InstName M1
SYMATTR Value BS170
SYMBOL OpAmps\\LT6001 720 352 R0
SYMATTR InstName U2
SYMBOL OpAmps\\LT6001 1104 368 R0
SYMATTR InstName U3
SYMBOL res 992 336 R90
WINDOW 0 0 56 VBottom 2
WINDOW 3 32 56 VTop 2
SYMATTR InstName R7
SYMATTR Value 10k
SYMBOL res 1184 160 R90
WINDOW 0 0 56 VBottom 2
WINDOW 3 32 56 VTop 2
SYMATTR InstName R8
SYMATTR Value 100k
SYMBOL res 800 160 R90
WINDOW 0 0 56 VBottom 2
WINDOW 3 32 56 VTop 2
SYMATTR InstName R9
SYMATTR Value 100Meg
SYMBOL cap 768 64 R90
WINDOW 0 0 32 VBottom 2
WINDOW 3 32 32 VTop 2
SYMATTR InstName C2
SYMATTR Value 22pF
SYMBOL voltage 1296 -240 R0
WINDOW 123 0 0 Left 0
WINDOW 39 0 0 Left 0
SYMATTR InstName V2
SYMATTR Value 8
SYMBOL voltage 1296 -112 R0
WINDOW 123 0 0 Left 0
WINDOW 39 0 0 Left 0
SYMATTR InstName V3
SYMATTR Value 8
SYMBOL voltage 1136 -240 R0
WINDOW 123 0 0 Left 0
WINDOW 39 0 0 Left 0
SYMATTR InstName V4
SYMATTR Value 1
TEXT -216 544 Left 2 !.dc V1 1.65 3 0.001
